network/quebec_main_island.m
function mpc = quebec_main_island
%% Exported from PyPSA network elec_solved.nc, snapshot 2022-01-04 08:00:00
%% Total load: 35781.3 MW, total generation (incl. storage): 36318.3 MW
%% Generator Qmax/Qmin are a generic assumption (not measured) -- see script docstring.

mpc.version = '2';

mpc.baseMVA = 100.0;

%% bus data
%	bus_i	type	Pd	Qd	Gs	Bs	area	Vm	Va	baseKV	zone	Vmax	Vmin
mpc.bus = [
	1	1	78.517	25.8073	0	0	1	1	-357.425	735	1	1.05	0.95;
	2	1	157.224	51.6769	0	0	1	1	-354.803	735	1	1.05	0.95;
	3	2	0.131434	0.0432002	0	0	1	1	-343.069	315	1	1.05	0.95;
	4	1	12.6243	4.1494	0	0	1	1	-357.709	315	1	1.05	0.95;
	5	1	186.811	61.4017	0	0	1	1	-300.521	735	1	1.05	0.95;
	6	1	0.891614	0.293059	0	0	1	1	-356.675	735	1	1.05	0.95;
	7	1	73.6945	24.2222	0	0	1	1	-355.588	315	1	1.05	0.95;
	8	2	3.98729	1.31056	0	0	1	1	-18.9581	315	1	1.05	0.95;
	9	1	16.0668	5.28091	0	0	1	1	-254.285	735	1	1.05	0.95;
	10	1	224.683	73.8498	0	0	1	1	-366.741	315	1	1.05	0.95;
	11	1	64.1519	21.0857	0	0	1	1	-358.132	735	1	1.05	0.95;
	12	1	391.44	128.66	0	0	1	1	-358.174	735	1	1.05	0.95;
	13	1	29.8457	9.80982	0	0	1	1	-356.106	315	1	1.05	0.95;
	14	1	298.691	98.1749	0	0	1	1	-369.977	315	1	1.05	0.95;
	15	1	10.1244	3.32774	0	0	1	1	-360.634	315	1	1.05	0.95;
	16	1	0	0	0	0	1	1	-349.715	735	1	1.05	0.95;
	17	2	1.12515	0.369819	0	0	1	1	-343.076	315	1	1.05	0.95;
	18	1	22.2431	7.31095	0	0	1	1	-394.152	315	1	1.05	0.95;
	19	1	0	0	0	0	1	1	-350.918	735	1	1.05	0.95;
	20	1	636.724	209.281	0	0	1	1	-354.874	315	1	1.05	0.95;
	21	1	9.03639	2.97012	0	0	1	1	-361.125	315	1	1.05	0.95;
	22	1	107.082	35.1963	0	0	1	1	-357.013	765	1	1.05	0.95;
	23	1	29.8628	9.81542	0	0	1	1	-376.798	315	1	1.05	0.95;
	24	1	391.231	128.591	0	0	1	1	-366.343	315	1	1.05	0.95;
	25	1	0.534666	0.175736	0	0	1	1	-267.889	315	1	1.05	0.95;
	26	1	6.15586	2.02333	0	0	1	1	-411.697	315	1	1.05	0.95;
	27	2	3.11199	1.02286	0	0	1	1	-343.104	315	1	1.05	0.95;
	28	1	70.3738	23.1307	0	0	1	1	-384.91	315	1	1.05	0.95;
	29	1	34.3398	11.2869	0	0	1	1	-394.896	315	1	1.05	0.95;
	30	1	26.2686	8.63406	0	0	1	1	-395.347	315	1	1.05	0.95;
	31	1	63.7846	20.965	0	0	1	1	-360.916	735	1	1.05	0.95;
	32	1	103.273	33.9444	0	0	1	1	-344.216	735	1	1.05	0.95;
	33	1	69.9556	22.9933	0	0	1	1	-357.188	315	1	1.05	0.95;
	34	1	26.1952	8.60994	0	0	1	1	-396.302	315	1	1.05	0.95;
	35	2	4.30382	1.4146	0	0	1	1	-172.494	315	1	1.05	0.95;
	36	1	0.350942	0.115349	0	0	1	1	-262.797	315	1	1.05	0.95;
	37	1	0	0	0	0	1	1	-343.686	735	1	1.05	0.95;
	38	1	4.55796	1.49813	0	0	1	1	-359.275	315	1	1.05	0.95;
	39	1	563.082	185.076	0	0	1	1	-360.71	735	1	1.05	0.95;
	40	1	11.3816	3.74096	0	0	1	1	-358.391	315	1	1.05	0.95;
	41	1	7.85819	2.58286	0	0	1	1	-358.375	315	1	1.05	0.95;
	42	1	268.638	88.2969	0	0	1	1	-360.919	735	1	1.05	0.95;
	43	2	0.0832407	0.0273599	0	0	1	1	-349.412	315	1	1.05	0.95;
	44	1	305.027	100.258	0	0	1	1	-359.282	315	1	1.05	0.95;
	45	1	63.978	21.0285	0	0	1	1	-396.363	315	1	1.05	0.95;
	46	1	12.0763	3.96928	0	0	1	1	-345.252	735	1	1.05	0.95;
	47	2	10.5205	3.45792	0	0	1	1	-350.968	315	1	1.05	0.95;
	48	1	10.053	3.30425	0	0	1	1	-377.646	345	1	1.05	0.95;
	49	1	4568.24	1501.51	0	0	1	1	-370.086	315	1	1.05	0.95;
	50	1	85.7776	28.1937	0	0	1	1	-356.522	735	1	1.05	0.95;
	51	1	3151.57	1035.87	0	0	1	1	-372.287	315	1	1.05	0.95;
	52	1	52.6827	17.316	0	0	1	1	-358.55	315	1	1.05	0.95;
	53	1	89.0602	29.2727	0	0	1	1	-342.362	735	1	1.05	0.95;
	54	2	0.367453	0.120776	0	0	1	1	-343.068	315	1	1.05	0.95;
	55	1	0.770087	0.253115	0	0	1	1	-411.52	315	1	1.05	0.95;
	56	1	614.062	201.832	0	0	1	1	-402.552	315	1	1.05	0.95;
	57	1	250.357	82.2884	0	0	1	1	-356.897	735	1	1.05	0.95;
	58	1	0	0	0	0	1	1	-348.021	735	1	1.05	0.95;
	59	2	8.02295	2.63702	0	0	1	1	-142.111	735	1	1.05	0.95;
	60	1	0.0568687	0.0186918	0	0	1	1	-348.919	315	1	1.05	0.95;
	61	1	42.8488	14.0837	0	0	1	1	-347.447	735	1	1.05	0.95;
	62	1	1824.32	599.625	0	0	1	1	-301.664	735	1	1.05	0.95;
	63	1	130.675	42.9507	0	0	1	1	-359.399	735	1	1.05	0.95;
	64	1	2.11471	0.695072	0	0	1	1	-251.96	735	1	1.05	0.95;
	65	1	16.2933	5.35536	0	0	1	1	-347.842	315	1	1.05	0.95;
	66	1	152.824	50.2309	0	0	1	1	-350.153	315	1	1.05	0.95;
	67	1	62.3982	20.5093	0	0	1	1	-356.517	315	1	1.05	0.95;
	68	1	17.7739	5.842	0	0	1	1	-358.469	315	1	1.05	0.95;
	69	1	78.2522	25.7202	0	0	1	1	-354.128	315	1	1.05	0.95;
	70	1	12.4236	4.08342	0	0	1	1	-405.765	315	1	1.05	0.95;
	71	1	93.7602	30.8175	0	0	1	1	-396.223	315	1	1.05	0.95;
	72	1	211.77	69.6055	0	0	1	1	-359.093	735	1	1.05	0.95;
	73	2	5.87214	1.93008	0	0	1	1	-172.907	315	1	1.05	0.95;
	74	1	18.1767	5.9744	0	0	1	1	-375.702	315	1	1.05	0.95;
	75	1	251.062	82.5201	0	0	1	1	-356.393	735	1	1.05	0.95;
	76	2	1.74603	0.573893	0	0	1	1	-347.882	315	1	1.05	0.95;
	77	1	265.756	87.3498	0	0	1	1	-360.619	315	1	1.05	0.95;
	78	2	1.33515	0.438843	0	0	1	1	-198.691	315	1	1.05	0.95;
	79	1	149.178	49.0326	0	0	1	1	-359.262	735	1	1.05	0.95;
	80	1	42.1712	13.861	0	0	1	1	-343.105	735	1	1.05	0.95;
	81	1	242.363	79.6609	0	0	1	1	-373.395	315	1	1.05	0.95;
	82	1	30.7801	10.1169	0	0	1	1	-358.238	315	1	1.05	0.95;
	83	1	47.1726	15.5049	0	0	1	1	-358.281	315	1	1.05	0.95;
	84	1	0	0	0	0	1	1	-61.44	735	1	1.05	0.95;
	85	2	1.48699	0.488749	0	0	1	1	-349.391	315	1	1.05	0.95;
	86	1	471.967	155.128	0	0	1	1	-366.324	315	1	1.05	0.95;
	87	1	1.75539	0.57697	0	0	1	1	-411.232	315	1	1.05	0.95;
	88	1	491.511	161.552	0	0	1	1	-355.698	315	1	1.05	0.95;
	89	2	1.59166	0.523152	0	0	1	1	-358.309	315	1	1.05	0.95;
	90	2	7.30075	2.39964	0	0	1	1	-173.36	315	1	1.05	0.95;
	91	2	53.346	17.534	0	0	1	1	-356.919	315	1	1.05	0.95;
	92	1	4.91695	1.61612	0	0	1	1	-395.577	315	1	1.05	0.95;
	93	2	26.1972	8.61061	0	0	1	1	-351.208	315	1	1.05	0.95;
	94	1	0.133104	0.0437491	0	0	1	1	-343.075	315	1	1.05	0.95;
	95	1	7.10211	2.33435	0	0	1	1	-352.378	735	1	1.05	0.95;
	96	1	0.737764	0.242491	0	0	1	1	-198.624	315	1	1.05	0.95;
	97	1	13.6169	4.47565	0	0	1	1	-373.654	315	1	1.05	0.95;
	98	1	157.598	51.7999	0	0	1	1	-358.504	315	1	1.05	0.95;
	99	1	0.0201714	0.00663002	0	0	1	1	-343.32	735	1	1.05	0.95;
	100	1	0.105517	0.0346817	0	0	1	1	-357.484	315	1	1.05	0.95;
	101	1	30.2162	9.93159	0	0	1	1	-354.784	735	1	1.05	0.95;
	102	1	25.2981	8.31509	0	0	1	1	-358.004	315	1	1.05	0.95;
	103	1	93.6159	30.77	0	0	1	1	-356.768	315	1	1.05	0.95;
	104	1	0.380696	0.125129	0	0	1	1	-256.019	315	1	1.05	0.95;
	105	1	23.5916	7.75417	0	0	1	1	-350.776	315	1	1.05	0.95;
	106	1	26.6633	8.76382	0	0	1	1	-357.603	315	1	1.05	0.95;
	107	2	143.998	47.3297	0	0	1	1	-349.429	735	1	1.05	0.95;
	108	1	0.17427	0.0572799	0	0	1	1	-351.645	315	1	1.05	0.95;
	109	1	19.6204	6.44891	0	0	1	1	-391.244	315	1	1.05	0.95;
	110	1	18.7257	6.15483	0	0	1	1	-326.644	735	1	1.05	0.95;
	111	1	18.4666	6.06966	0	0	1	1	-374.66	315	1	1.05	0.95;
	112	1	0	0	0	0	1	1	-343.049	735	1	1.05	0.95;
	113	2	3.81075	1.25253	0	0	1	1	-395.691	315	1	1.05	0.95;
	114	1	110.363	36.2746	0	0	1	1	-413.393	315	1	1.05	0.95;
	115	1	0	0	0	0	1	1	-349.05	735	1	1.05	0.95;
	116	1	43.8811	14.423	0	0	1	1	-370.682	315	1	1.05	0.95;
	117	1	0.539249	0.177243	0	0	1	1	-411.382	315	1	1.05	0.95;
	118	1	481.804	158.361	0	0	1	1	-357.849	315	1	1.05	0.95;
	119	1	843.563	277.266	0	0	1	1	-359.162	765	1	1.05	0.95;
	120	1	95.7997	31.4878	0	0	1	1	-371.964	315	1	1.05	0.95;
	121	3	5.3043	1.74344	0	0	1	1	0	315	1	1.05	0.95;
	122	1	0.0282753	0.00929365	0	0	1	1	-343.067	315	1	1.05	0.95;
	123	1	122.885	40.3905	0	0	1	1	-357.013	735	1	1.05	0.95;
	124	1	0	0	0	0	1	1	-59.9541	735	1	1.05	0.95;
	125	1	514.86	169.226	0	0	1	1	-353.402	735	1	1.05	0.95;
	126	1	1376.6	452.465	0	0	1	1	-328.678	735	1	1.05	0.95;
	127	1	3.13239	1.02957	0	0	1	1	-410.759	315	1	1.05	0.95;
	128	1	711.237	233.772	0	0	1	1	-300.404	315	1	1.05	0.95;
	129	1	0.141315	0.046448	0	0	1	1	-354.825	315	1	1.05	0.95;
	130	1	1.29654	0.426151	0	0	1	1	-358.907	315	1	1.05	0.95;
	131	1	25.3533	8.33323	0	0	1	1	-354.154	735	1	1.05	0.95;
	132	1	0.475988	0.15645	0	0	1	1	-343.087	315	1	1.05	0.95;
	133	1	478.067	157.133	0	0	1	1	-359.177	315	1	1.05	0.95;
	134	1	0.481758	0.158346	0	0	1	1	-251.084	315	1	1.05	0.95;
	135	1	704.416	231.53	0	0	1	1	-360.751	315	1	1.05	0.95;
	136	1	44.3353	14.5723	0	0	1	1	-360.192	315	1	1.05	0.95;
	137	1	5.49635	1.80656	0	0	1	1	-342.708	735	1	1.05	0.95;
	138	1	66.7486	21.9392	0	0	1	1	-353.063	315	1	1.05	0.95;
	139	1	1.08624	0.357029	0	0	1	1	-343.099	315	1	1.05	0.95;
	140	1	93.6839	30.7924	0	0	1	1	-364.574	315	1	1.05	0.95;
	141	1	0	0	0	0	1	1	-172.402	735	1	1.05	0.95;
	142	1	27.0708	8.89774	0	0	1	1	-355.447	315	1	1.05	0.95;
	143	1	1224.85	402.588	0	0	1	1	-364.433	315	1	1.05	0.95;
	144	1	45.414	14.9269	0	0	1	1	-382.354	315	1	1.05	0.95;
	145	1	0.720523	0.236824	0	0	1	1	-360.947	315	1	1.05	0.95;
	146	2	12.9569	4.25872	0	0	1	1	-173.288	315	1	1.05	0.95;
	147	1	99.3601	32.6581	0	0	1	1	-289.008	315	1	1.05	0.95;
	148	2	11.9205	3.91808	0	0	1	1	-347.685	735	1	1.05	0.95;
	149	2	0.181656	0.0597074	0	0	1	1	-356.618	315	1	1.05	0.95;
	150	1	162.581	53.4379	0	0	1	1	-353.698	735	1	1.05	0.95;
	151	1	10.5668	3.47315	0	0	1	1	-360.475	315	1	1.05	0.95;
	152	1	52.5947	17.287	0	0	1	1	-377.609	315	1	1.05	0.95;
	153	1	11.2452	3.69611	0	0	1	1	-358.019	315	1	1.05	0.95;
	154	1	59.0739	19.4167	0	0	1	1	-359.274	315	1	1.05	0.95;
	155	1	403.045	132.474	0	0	1	1	-359.593	735	1	1.05	0.95;
	156	1	0	0	0	0	1	1	-198.616	735	1	1.05	0.95;
	157	1	89.241	29.3321	0	0	1	1	-355.296	315	1	1.05	0.95;
	158	1	1.69383	0.556736	0	0	1	1	-349.341	315	1	1.05	0.95;
	159	1	84.2083	27.6779	0	0	1	1	-361.91	315	1	1.05	0.95;
	160	1	12.9891	4.2693	0	0	1	1	-359.284	315	1	1.05	0.95;
	161	1	0.67346	0.221356	0	0	1	1	-349.358	315	1	1.05	0.95;
	162	2	0.437791	0.143895	0	0	1	1	-348.92	315	1	1.05	0.95;
	163	1	19.0638	6.26598	0	0	1	1	-354.786	315	1	1.05	0.95;
	164	1	2.0785	0.68317	0	0	1	1	-349.159	315	1	1.05	0.95;
	165	1	20.5474	6.75359	0	0	1	1	-387.028	315	1	1.05	0.95;
	166	2	0.694315	0.22821	0	0	1	1	-198.644	315	1	1.05	0.95;
	167	1	109.368	35.9476	0	0	1	1	-357.142	315	1	1.05	0.95;
	168	1	115.652	38.013	0	0	1	1	-354.267	315	1	1.05	0.95;
	169	1	17.682	5.81179	0	0	1	1	-393.88	315	1	1.05	0.95;
	170	1	0.223057	0.0733154	0	0	1	1	-359.44	315	1	1.05	0.95;
	171	1	37.8298	12.4341	0	0	1	1	-359.273	315	1	1.05	0.95;
	172	1	494.177	162.428	0	0	1	1	-360.86	735	1	1.05	0.95;
	173	1	1024.03	336.582	0	0	1	1	-334.727	735	1	1.05	0.95;
	174	1	0	0	0	0	1	1	-350.872	735	1	1.05	0.95;
	175	1	4.58107	1.50573	0	0	1	1	-360.117	315	1	1.05	0.95;
	176	1	380.397	125.031	0	0	1	1	-368.764	315	1	1.05	0.95;
	177	1	117.04	38.469	0	0	1	1	-356.394	315	1	1.05	0.95;
	178	1	189.678	62.3441	0	0	1	1	-365.97	315	1	1.05	0.95;
	179	1	7.72242	2.53824	0	0	1	1	-351.017	315	1	1.05	0.95;
	180	1	1.93487	0.635962	0	0	1	1	-172.328	735	1	1.05	0.95;
	181	1	1.718	0.564678	0	0	1	1	-172.903	315	1	1.05	0.95;
	182	1	45.1811	14.8503	0	0	1	1	-393.33	315	1	1.05	0.95;
	183	1	54.3093	17.8506	0	0	1	1	-396.02	315	1	1.05	0.95;
	184	1	0.875775	0.287853	0	0	1	1	-203.249	735	1	1.05	0.95;
	185	1	3544.65	1165.07	0	0	1	1	-363.02	315	1	1.05	0.95;
	186	1	555.537	182.596	0	0	1	1	-360.14	735	1	1.05	0.95;
	187	1	0.201383	0.0661915	0	0	1	1	-358.129	315	1	1.05	0.95;
	188	1	7.47121	2.45567	0	0	1	1	-395.89	315	1	1.05	0.95;
	189	1	0	0	0	0	1	1	-350.881	735	1	1.05	0.95;
	190	1	0	0	0	0	1	1	-248.757	735	1	1.05	0.95;
	191	1	0	0	0	0	1	1	-354.29	735	1	1.05	0.95;
	192	1	4.51737	1.48479	0	0	1	1	-376.591	315	1	1.05	0.95;
	193	1	209.42	68.8331	0	0	1	1	-354.584	315	1	1.05	0.95;
	194	1	466.358	153.285	0	0	1	1	-406.246	315	1	1.05	0.95;
	195	2	0.836132	0.274823	0	0	1	1	-349.399	315	1	1.05	0.95;
	196	2	0.143081	0.0470284	0	0	1	1	-348.92	315	1	1.05	0.95;
	197	1	0	0	0	0	1	1	-377.638	345	1	1.05	0.95;
	198	1	1174	385.875	0	0	1	1	-362.408	315	1	1.05	0.95;
	199	1	0.584496	0.192115	0	0	1	1	-18.9167	315	1	1.05	0.95;
	200	1	552.286	181.528	0	0	1	1	-356.534	315	1	1.05	0.95;
];

%% generator data
%	bus	Pg	Qg	Qmax	Qmin	Vg	mBase	status	Pmax	Pmin	Pc1	Pc2	Qc1min	Qc1max	Qc2min	Qc2max	ramp_agc	ramp_10	ramp_30	ramp_q	apf
mpc.gen = [
	88	1756.94	0	1155.2	-1155.2	1	1864	1	1864	0	0	0	0	0	0	0	0	0	0	0	0;
	177	254.492	0	167.331	-167.331	1	270	1	270	0	0	0	0	0	0	0	0	0	0	0	0;
	149	796.465	0	523.684	-523.684	1	845	1	845	0	0	0	0	0	0	0	0	0	0	0	0;
	118	718.233	0	472.245	-472.245	1	762	1	762	0	0	0	0	0	0	0	0	0	0	0	0;
	91	-0	0	142.541	-142.541	1	230	1	230	0	0	0	0	0	0	0	0	0	0	0	0;
	33	-0	0	76.8483	-76.8483	1	124	1	124	0	0	0	0	0	0	0	0	0	0	0	0;
	8	-0	0	889.953	-889.953	1	1436	1	1436	0	0	0	0	0	0	0	0	0	0	0	0;
	177	270.515	0	177.867	-177.867	1	287	1	287	0	0	0	0	0	0	0	0	0	0	0	0;
	146	-0	0	197.698	-197.698	1	319	1	319	0	0	0	0	0	0	0	0	0	0	0	0;
	88	106.51	0	70.0311	-70.0311	1	113	1	113	0	0	0	0	0	0	0	0	0	0	0	0;
	3	1249.84	0	821.781	-821.781	1	1326	1	1326	0	0	0	0	0	0	0	0	0	0	0	0;
	162	1158.41	0	761.666	-761.666	1	1229	1	1229	0	0	0	0	0	0	0	0	0	0	0	0;
	43	-0	0	114.033	-114.033	1	184	1	184	0	0	0	0	0	0	0	0	0	0	0	0;
	43	47.4338	0	145.64	-145.64	1	235	1	235	0	0	0	0	0	0	0	0	0	0	0	0;
	196	967.069	0	635.858	-635.858	1	1026	1	1026	0	0	0	0	0	0	0	0	0	0	0	0;
	43	492.96	0	324.126	-324.126	1	523	1	523	0	0	0	0	0	0	0	0	0	0	0	0;
	114	362.887	0	238.602	-238.602	1	385	1	385	0	0	0	0	0	0	0	0	0	0	0	0;
	128	116.878	0	76.8483	-76.8483	1	124	1	124	0	0	0	0	0	0	0	0	0	0	0	0;
	128	165.891	0	109.075	-109.075	1	176	1	176	0	0	0	0	0	0	0	0	0	0	0	0;
	128	104.624	0	68.7916	-68.7916	1	111	1	111	0	0	0	0	0	0	0	0	0	0	0	0;
	93	0	0	167.331	-167.331	1	270	1	270	0	0	0	0	0	0	0	0	0	0	0	0;
	78	-0	0	92.9617	-92.9617	1	150	1	150	0	0	0	0	0	0	0	0	0	0	0	0;
	91	-0	0	114.033	-114.033	1	184	1	184	0	0	0	0	0	0	0	0	0	0	0	0;
	91	-0	0	123.949	-123.949	1	200	1	200	0	0	0	0	0	0	0	0	0	0	0	0;
	5	284.654	0	187.163	-187.163	1	302	1	302	0	0	0	0	0	0	0	0	0	0	0	0;
	67	-0	0	254.715	-254.715	1	411	1	411	0	0	0	0	0	0	0	0	0	0	0	0;
	194	23.128	0	229.223	-229.223	1	369.866	1	369.866	0	0	0	0	0	0	0	0	0	0	0	0;
	71	17.0488	0	196.476	-196.476	1	317.028	1	317.028	0	0	0	0	0	0	0	0	0	0	0	0;
	28	-0	0	146.866	-146.866	1	236.979	1	236.979	0	0	0	0	0	0	0	0	0	0	0	0;
	148	0	0	138.516	-138.516	1	223.505	1	223.505	0	0	0	0	0	0	0	0	0	0	0	0;
	12	165.753	0	102.724	-102.724	1	165.753	1	165.753	0	0	0	0	0	0	0	0	0	0	0	0;
	176	21.1044	0	98.2382	-98.2382	1	158.514	1	158.514	0	0	0	0	0	0	0	0	0	0	0	0;
	45	13.9857	0	97.747	-97.747	1	157.722	1	157.722	0	0	0	0	0	0	0	0	0	0	0	0;
	12	24.2537	0	96.4045	-96.4045	1	155.555	1	155.555	0	0	0	0	0	0	0	0	0	0	0	0;
	24	3.89883	0	92.082	-92.082	1	148.581	1	148.581	0	0	0	0	0	0	0	0	0	0	0	0;
	113	12.9629	0	90.7721	-90.7721	1	146.467	1	146.467	0	0	0	0	0	0	0	0	0	0	0	0;
	71	5.19714	0	87.301	-87.301	1	140.866	1	140.866	0	0	0	0	0	0	0	0	0	0	0	0;
	24	3.63817	0	85.9257	-85.9257	1	138.647	1	138.647	0	0	0	0	0	0	0	0	0	0	0	0;
	71	3.1089	0	71.7139	-71.7139	1	115.715	1	115.715	0	0	0	0	0	0	0	0	0	0	0	0;
	133	10.212	0	66.2781	-66.2781	1	106.944	1	106.944	0	0	0	0	0	0	0	0	0	0	0	0;
	183	8.83636	0	66.1798	-66.1798	1	106.786	1	106.786	0	0	0	0	0	0	0	0	0	0	0	0;
	93	0	0	65.8196	-65.8196	1	106.204	1	106.204	0	0	0	0	0	0	0	0	0	0	0	0;
	65	0	0	65.8196	-65.8196	1	106.204	1	106.204	0	0	0	0	0	0	0	0	0	0	0	0;
	75	13.1845	0	65.4922	-65.4922	1	105.676	1	105.676	0	0	0	0	0	0	0	0	0	0	0	0;
	113	6.99585	0	48.9881	-48.9881	1	79.0457	1	79.0457	0	0	0	0	0	0	0	0	0	0	0	0;
	24	1.88286	0	44.4692	-44.4692	1	71.7541	1	71.7541	0	0	0	0	0	0	0	0	0	0	0	0;
	144	-0	0	33.8594	-33.8594	1	54.6345	1	54.6345	0	0	0	0	0	0	0	0	0	0	0	0;
	71	1.398	0	16.1111	-16.1111	1	25.9963	1	25.9963	0	0	0	0	0	0	0	0	0	0	0	0;
	125	3.71974	0	16.1111	-16.1111	1	25.9963	1	25.9963	0	0	0	0	0	0	0	0	0	0	0	0;
	144	-0	0	16.1111	-16.1111	1	25.9963	1	25.9963	0	0	0	0	0	0	0	0	0	0	0	0;
	77	25.3623	0	15.7181	-15.7181	1	25.3623	1	25.3623	0	0	0	0	0	0	0	0	0	0	0	0;
	133	2.01519	0	15.7181	-15.7181	1	25.3623	1	25.3623	0	0	0	0	0	0	0	0	0	0	0	0;
	176	3.3767	0	15.7181	-15.7181	1	25.3623	1	25.3623	0	0	0	0	0	0	0	0	0	0	0	0;
	70	1.75593	0	15.7181	-15.7181	1	25.3623	1	25.3623	0	0	0	0	0	0	0	0	0	0	0	0;
	24	0.651653	0	15.3907	-15.3907	1	24.8339	1	24.8339	0	0	0	0	0	0	0	0	0	0	0	0;
	71	0.667208	0	15.3907	-15.3907	1	24.8339	1	24.8339	0	0	0	0	0	0	0	0	0	0	0	0;
	144	-0	0	15.3907	-15.3907	1	24.8339	1	24.8339	0	0	0	0	0	0	0	0	0	0	0	0;
	113	1.9781	0	13.8516	-13.8516	1	22.3505	1	22.3505	0	0	0	0	0	0	0	0	0	0	0	0;
	93	0	0	3.92953	-3.92953	1	6.34057	1	6.34057	0	0	0	0	0	0	0	0	0	0	0	0;
	154	0	0	1.15887	-1.15887	1	1.86992	1	1.86992	0	0	0	0	0	0	0	0	0	0	0	0;
	33	0	0	1.31003	-1.31003	1	2.11382	1	2.11382	0	0	0	0	0	0	0	0	0	0	0	0;
	130	0	0	3.72854	-3.72854	1	6.01626	1	6.01626	0	0	0	0	0	0	0	0	0	0	0	0;
	118	216	0	133.865	-133.865	1	216	1	216	0	0	0	0	0	0	0	0	0	0	0	0;
	118	152	0	94.2011	-94.2011	1	152	1	152	0	0	0	0	0	0	0	0	0	0	0	0;
	118	104	0	64.4534	-64.4534	1	104	1	104	0	0	0	0	0	0	0	0	0	0	0	0;
	118	68	0	42.1426	-42.1426	1	68	1	68	0	0	0	0	0	0	0	0	0	0	0	0;
	118	92	0	57.0165	-57.0165	1	92	1	92	0	0	0	0	0	0	0	0	0	0	0	0;
	118	61	0	37.8044	-37.8044	1	61	1	61	0	0	0	0	0	0	0	0	0	0	0	0;
	118	10	0	6.19744	-6.19744	1	10	1	10	0	0	0	0	0	0	0	0	0	0	0	0;
	33	-0	0	38.4241	-38.4241	1	62	1	62	0	0	0	0	0	0	0	0	0	0	0	0;
	33	-0	0	47.1006	-47.1006	1	76	1	76	0	0	0	0	0	0	0	0	0	0	0	0;
	88	54	0	33.4662	-33.4662	1	54	1	54	0	0	0	0	0	0	0	0	0	0	0	0;
	121	-0	0	4785.67	-4785.67	1	7722	1	7722	0	0	0	0	0	0	0	0	0	0	0	0;
	90	0	0	290.66	-290.66	1	469	1	469	0	0	0	0	0	0	0	0	0	0	0	0;
	107	0	0	3363.97	-3363.97	1	5428	1	5428	0	0	0	0	0	0	0	0	0	0	0	0;
	47	0	0	396.636	-396.636	1	640	1	640	0	0	0	0	0	0	0	0	0	0	0	0;
	17	0	0	325.986	-325.986	1	526	1	526	0	0	0	0	0	0	0	0	0	0	0	0;
	195	0	0	244.799	-244.799	1	395	1	395	0	0	0	0	0	0	0	0	0	0	0	0;
	73	0	0	544.136	-544.136	1	878	1	878	0	0	0	0	0	0	0	0	0	0	0	0;
	35	0	0	1722.27	-1722.27	1	2779	1	2779	0	0	0	0	0	0	0	0	0	0	0	0;
	85	0	0	151.837	-151.837	1	245	1	245	0	0	0	0	0	0	0	0	0	0	0	0;
	166	0	0	773.441	-773.441	1	1248	1	1248	0	0	0	0	0	0	0	0	0	0	0	0;
	54	0	0	486.499	-486.499	1	785	1	785	0	0	0	0	0	0	0	0	0	0	0	0;
	76	0	0	546.615	-546.615	1	882	1	882	0	0	0	0	0	0	0	0	0	0	0	0;
	27	0	0	1680.13	-1680.13	1	2711	1	2711	0	0	0	0	0	0	0	0	0	0	0	0;
	59	0	0	1497.92	-1497.92	1	2417	1	2417	0	0	0	0	0	0	0	0	0	0	0	0;
	89	0	0	697.212	-697.212	1	1125	1	1125	0	0	0	0	0	0	0	0	0	0	0	0;
	166	723.888	0	475.964	-475.964	1	768	1	768	0	0	0	0	0	0	0	0	0	0	0	0;
	89	1060.38	0	697.212	-697.212	1	1125	1	1125	0	0	0	0	0	0	0	0	0	0	0	0;
	90	442.062	0	290.66	-290.66	1	469	1	469	0	0	0	0	0	0	0	0	0	0	0	0;
	107	5116.23	0	3363.97	-3363.97	1	5428	1	5428	0	0	0	0	0	0	0	0	0	0	0	0;
	35	2619.38	0	1722.27	-1722.27	1	2779	1	2779	0	0	0	0	0	0	0	0	0	0	0	0;
	59	2278.17	0	1497.92	-1497.92	1	2417	1	2417	0	0	0	0	0	0	0	0	0	0	0	0;
	121	1985.04	0	1305.18	-1305.18	1	2106	1	2106	0	0	0	0	0	0	0	0	0	0	0	0;
	73	827.57	0	544.136	-544.136	1	878	1	878	0	0	0	0	0	0	0	0	0	0	0	0;
	27	1002.89	0	659.408	-659.408	1	1064	1	1064	0	0	0	0	0	0	0	0	0	0	0	0;
	27	1504.33	0	989.112	-989.112	1	1596	1	1596	0	0	0	0	0	0	0	0	0	0	0	0;
	54	739.912	0	486.499	-486.499	1	785	1	785	0	0	0	0	0	0	0	0	0	0	0	0;
	5	204.536	0	134.485	-134.485	1	217	1	217	0	0	0	0	0	0	0	0	0	0	0	0;
	121	5293.43	0	3480.48	-3480.48	1	5616	1	5616	0	0	0	0	0	0	0	0	0	0	0	0;
	47	603.24	0	396.636	-396.636	1	640	1	640	0	0	0	0	0	0	0	0	0	0	0	0;
	195	372.312	0	244.799	-244.799	1	395	1	395	0	0	0	0	0	0	0	0	0	0	0	0;
	85	230.928	0	151.837	-151.837	1	245	1	245	0	0	0	0	0	0	0	0	0	0	0	0;
	76	831.34	0	546.615	-546.615	1	882	1	882	0	0	0	0	0	0	0	0	0	0	0	0;
	17	495.788	0	325.986	-325.986	1	526	1	526	0	0	0	0	0	0	0	0	0	0	0	0;
	166	1.1e-06	0	297.477	-297.477	1	480	1	480	0	0	0	0	0	0	0	0	0	0	0	0;
	118	1.1e-06	0	34.0859	-34.0859	1	55	1	55	0	0	0	0	0	0	0	0	0	0	0	0;
	118	1.1e-06	0	37.8044	-37.8044	1	61	1	61	0	0	0	0	0	0	0	0	0	0	0	0;
	27	1.1e-06	0	31.607	-31.607	1	51	1	51	0	0	0	0	0	0	0	0	0	0	0	0;
];

%% branch data
%	fbus	tbus	r	x	b	rateA	rateB	rateC	ratio	angle	status	angmin	angmax
mpc.branch = [
	22	119	0.000134698	0.00444503	2.26049	23634.1	23634.1	23634.1	0	0	1	-360	360;
	133	130	0.000144601	0.00185916	0.0874551	7185.26	7185.26	7185.26	0	0	1	-360	360;
	189	37	9.31012e-05	0.00307234	1.33138	21816.8	21816.8	21816.8	0	0	1	-360	360;
	200	168	0.000498028	0.00640322	0.301208	7185.26	7185.26	7185.26	0	0	1	-360	360;
	168	138	0.000209466	0.00269314	0.126686	7185.26	7185.26	7185.26	0	0	1	-360	360;
	154	44	0.000212686	0.00273453	0.128633	7185.26	7185.26	7185.26	0	0	1	-360	360;
	130	133	0.000163092	0.0020969	0.221936	10777.9	10777.9	10777.9	0	0	1	-360	360;
	101	6	6.4015e-05	0.0021125	0.915435	21816.8	21816.8	21816.8	0	0	1	-360	360;
	6	155	8.67356e-05	0.00286227	1.24035	21816.8	21816.8	21816.8	0	0	1	-360	360;
	84	156	0.000800908	0.02643	11.4532	5960.96	5960.96	5960.96	0	0	1	-360	360;
	124	84	4.74675e-05	0.00156643	0.6788	21816.8	21816.8	21816.8	0	0	1	-360	360;
	156	184	9.4619e-05	0.00312243	1.35308	21816.8	21816.8	21816.8	0	0	1	-360	360;
	180	184	0.000662024	0.0218468	9.46715	7095.2	7095.2	7095.2	0	0	1	-360	360;
	141	180	0.000358223	0.0118213	5.1227	12793.9	12793.9	12793.9	0	0	1	-360	360;
	59	184	0.000809317	0.0267074	11.5735	5905.45	5905.45	5905.45	0	0	1	-360	360;
	124	156	0.000845132	0.0278893	12.0856	5682.19	5682.19	5682.19	0	0	1	-360	360;
	156	190	0.000638026	0.0105274	9.12396	7343.78	7343.78	7343.78	0	0	1	-360	360;
	199	8	0.00141062	0.0181365	0.853142	7185.26	7185.26	7185.26	0	0	1	-360	360;
	59	124	0.000484046	0.0159735	6.922	9547.94	9547.94	9547.94	0	0	1	-360	360;
	90	146	0.00132861	0.0170821	0.803545	7185.26	7185.26	7185.26	0	0	1	-360	360;
	146	181	0.0025821	0.0331985	1.56166	4547.28	4547.28	4547.28	0	0	1	-360	360;
	35	181	0.0019921	0.0256128	1.20483	5873.4	5873.4	5873.4	0	0	1	-360	360;
	115	148	0.000646633	0.0213389	9.24706	7252.41	7252.41	7252.41	0	0	1	-360	360;
	198	145	0.000243548	0.00313134	0.0368246	3592.63	3592.63	3592.63	0	0	1	-360	360;
	154	145	0.000278708	0.00358339	0.0421407	3592.63	3592.63	3592.63	0	0	1	-360	360;
	101	95	4.10894e-05	0.00135595	0.587591	21816.8	21816.8	21816.8	0	0	1	-360	360;
	125	101	0.000138061	0.00455601	1.97431	21816.8	21816.8	21816.8	0	0	1	-360	360;
	123	57	4.8087e-05	0.00158687	0.687658	21816.8	21816.8	21816.8	0	0	1	-360	360;
	112	99	1.52168e-05	0.000502153	0.217604	21816.8	21816.8	21816.8	0	0	1	-360	360;
	112	110	0.00070419	0.0232383	10.0701	6701.09	6701.09	6701.09	0	0	1	-360	360;
	54	122	0.000295807	0.00380323	0.178904	7185.26	7185.26	7185.26	0	0	1	-360	360;
	122	94	0.000389439	0.00500707	0.235533	7185.26	7185.26	7185.26	0	0	1	-360	360;
	132	94	0.000744188	0.00956813	0.450086	7185.26	7185.26	7185.26	0	0	1	-360	360;
	60	162	0.000167016	0.00214735	0.0252529	3592.63	3592.63	3592.63	0	0	1	-360	360;
	132	139	0.000764569	0.00983018	0.462412	7185.26	7185.26	7185.26	0	0	1	-360	360;
	132	139	0.00077429	0.00995516	0.468292	7185.26	7185.26	7185.26	0	0	1	-360	360;
	139	27	0.000435543	0.00559983	0.263417	7185.26	7185.26	7185.26	0	0	1	-360	360;
	79	63	0.000105138	0.00346955	1.5035	21816.8	21816.8	21816.8	0	0	1	-360	360;
	153	33	0.00121508	0.0156225	0.734882	7185.26	7185.26	7185.26	0	0	1	-360	360;
	103	175	0.0002379	0.00305872	0.143882	7185.26	7185.26	7185.26	0	0	1	-360	360;
	175	143	0.00031463	0.00404524	0.190288	7185.26	7185.26	7185.26	0	0	1	-360	360;
	103	167	0.000464233	0.00596871	0.280769	7185.26	7185.26	7185.26	0	0	1	-360	360;
	126	137	0.000167668	0.00553305	2.39771	21816.8	21816.8	21816.8	0	0	1	-360	360;
	23	144	0.00135627	0.0174377	0.820271	7185.26	7185.26	7185.26	0	0	1	-360	360;
	144	28	0.000679533	0.00873685	0.410982	7185.26	7185.26	7185.26	0	0	1	-360	360;
	28	165	0.000652784	0.00839293	0.394804	7185.26	7185.26	7185.26	0	0	1	-360	360;
	165	109	0.00136347	0.0175303	0.824629	7185.26	7185.26	7185.26	0	0	1	-360	360;
	109	182	0.000707743	0.00909956	0.428044	7185.26	7185.26	7185.26	0	0	1	-360	360;
	182	169	0.000210057	0.00270073	0.127043	7185.26	7185.26	7185.26	0	0	1	-360	360;
	110	5	0.000328366	0.0108361	4.69574	13934.6	13934.6	13934.6	0	0	1	-360	360;
	2	75	0.000184111	0.00607565	2.63284	21816.8	21816.8	21816.8	0	0	1	-360	360;
	2	11	0.000198869	0.00656267	2.84389	21816.8	21816.8	21816.8	0	0	1	-360	360;
	77	176	0.00125201	0.0160972	0.757214	7185.26	7185.26	7185.26	0	0	1	-360	360;
	77	176	0.0012544	0.016128	0.758662	7185.26	7185.26	7185.26	0	0	1	-360	360;
	2	131	7.46063e-05	0.00246201	1.06689	21816.8	21816.8	21816.8	0	0	1	-360	360;
	2	189	7.30079e-05	0.00240926	1.04404	21816.8	21816.8	21816.8	0	0	1	-360	360;
	174	19	4.87138e-05	0.00160756	0.696623	21816.8	21816.8	21816.8	0	0	1	-360	360;
	19	46	0.000133726	0.00441296	1.91233	21816.8	21816.8	21816.8	0	0	1	-360	360;
	192	23	9.01729e-05	0.00115937	0.0545367	7185.26	7185.26	7185.26	0	0	1	-360	360;
	81	192	0.0013712	0.0176297	0.829301	7185.26	7185.26	7185.26	0	0	1	-360	360;
	111	74	0.000398409	0.0051224	0.240958	7185.26	7185.26	7185.26	0	0	1	-360	360;
	74	23	0.000441792	0.00568019	0.267197	7185.26	7185.26	7185.26	0	0	1	-360	360;
	97	111	0.000365569	0.00470018	0.221097	7185.26	7185.26	7185.26	0	0	1	-360	360;
	1	63	0.000165618	0.0054654	2.36839	21816.8	21816.8	21816.8	0	0	1	-360	360;
	2	75	0.000184408	0.00608547	2.6371	21816.8	21816.8	21816.8	0	0	1	-360	360;
	83	33	0.0017512	0.0225154	0.264782	3592.63	3592.63	3592.63	0	0	1	-360	360;
	123	57	4.7909e-05	0.001581	0.685114	21816.8	21816.8	21816.8	0	0	1	-360	360;
	129	108	0.00138096	0.0177552	0.208802	3592.63	3592.63	3592.63	0	0	1	-360	360;
	37	32	0.000406789	0.013424	5.81721	11299.5	11299.5	11299.5	0	0	1	-360	360;
	67	177	9.67991e-05	0.00124456	0.0585442	7185.26	7185.26	7185.26	0	0	1	-360	360;
	7	157	0.000199583	0.00256607	0.120708	7185.26	7185.26	7185.26	0	0	1	-360	360;
	13	7	0.000220778	0.00283857	0.133527	7185.26	7185.26	7185.26	0	0	1	-360	360;
	91	7	0.000944662	0.0121457	0.571333	7185.26	7185.26	7185.26	0	0	1	-360	360;
	91	67	0.000499037	0.00641619	0.301818	7185.26	7185.26	7185.26	0	0	1	-360	360;
	177	13	0.000135378	0.00174057	0.0818765	7185.26	7185.26	7185.26	0	0	1	-360	360;
	157	20	0.000199677	0.00256727	0.120765	7185.26	7185.26	7185.26	0	0	1	-360	360;
	20	69	0.000109598	0.00140911	0.0662849	7185.26	7185.26	7185.26	0	0	1	-360	360;
	190	62	0.000802275	0.0132375	11.4728	5951.85	5951.85	5951.85	0	0	1	-360	360;
	200	142	0.0001285	0.00165215	0.0194293	3592.63	3592.63	3592.63	0	0	1	-360	360;
	200	142	0.000353579	0.00454602	0.0534613	3592.63	3592.63	3592.63	0	0	1	-360	360;
	200	151	0.00395289	0.0508229	2.39071	3005.26	3005.26	3005.26	0	0	1	-360	360;
	200	168	0.000359419	0.0046211	0.217377	7185.26	7185.26	7185.26	0	0	1	-360	360;
	200	151	0.0039518	0.0508088	2.39005	3006.06	3006.06	3006.06	0	0	1	-360	360;
	69	138	0.000183748	0.00236248	0.111131	7185.26	7185.26	7185.26	0	0	1	-360	360;
	37	110	0.000504351	0.0166436	7.21237	9178.12	9178.12	9178.12	0	0	1	-360	360;
	176	120	0.000753615	0.00968934	0.455787	7185.26	7185.26	7185.26	0	0	1	-360	360;
	150	131	4.9715e-05	0.0016406	0.71094	21816.8	21816.8	21816.8	0	0	1	-360	360;
	159	140	0.000451525	0.00580532	0.273083	7185.26	7185.26	7185.26	0	0	1	-360	360;
	140	178	0.000599342	0.00770582	0.362483	7185.26	7185.26	7185.26	0	0	1	-360	360;
	178	10	0.000827695	0.0106418	0.500591	7185.26	7185.26	7185.26	0	0	1	-360	360;
	116	120	0.000374091	0.00480974	0.226251	7185.26	7185.26	7185.26	0	0	1	-360	360;
	14	116	0.000188041	0.00241767	0.113727	7185.26	7185.26	7185.26	0	0	1	-360	360;
	120	97	0.00059292	0.00762325	0.358599	7185.26	7185.26	7185.26	0	0	1	-360	360;
	21	15	8.26895e-05	0.00106315	0.112524	10777.9	10777.9	10777.9	0	0	1	-360	360;
	95	174	3.7503e-05	0.0012376	0.536305	21816.8	21816.8	21816.8	0	0	1	-360	360;
	53	174	0.000156552	0.00516621	2.23874	21816.8	21816.8	21816.8	0	0	1	-360	360;
	46	32	2.43383e-05	0.000803163	0.348045	21816.8	21816.8	21816.8	0	0	1	-360	360;
	37	125	0.000492008	0.0162363	7.03587	9399.2	9399.2	9399.2	0	0	1	-360	360;
	41	83	0.000340741	0.00438095	0.0515201	3592.63	3592.63	3592.63	0	0	1	-360	360;
	98	68	0.000402988	0.00518128	0.060932	3592.63	3592.63	3592.63	0	0	1	-360	360;
	40	98	0.000105267	0.00135344	0.0636658	7185.26	7185.26	7185.26	0	0	1	-360	360;
	151	89	0.00400871	0.0515406	2.42447	2965.13	2965.13	2965.13	0	0	1	-360	360;
	151	170	0.000860572	0.0110645	0.520475	7185.26	7185.26	7185.26	0	0	1	-360	360;
	170	187	0.00108838	0.0139935	0.658254	7185.26	7185.26	7185.26	0	0	1	-360	360;
	58	2	0.00104284	0.0344139	14.913	4746.22	4746.22	4746.22	0	0	1	-360	360;
	82	40	0.000275338	0.00354006	0.0416312	3592.63	3592.63	3592.63	0	0	1	-360	360;
	137	191	0.00024714	0.0081556	3.53417	18446.3	18446.3	18446.3	0	0	1	-360	360;
	191	6	0.000121683	0.00401553	1.7401	21816.8	21816.8	21816.8	0	0	1	-360	360;
	187	100	0.000534336	0.00687004	0.323167	7185.26	7185.26	7185.26	0	0	1	-360	360;
	18	29	0.000320561	0.0041215	0.193876	7185.26	7185.26	7185.26	0	0	1	-360	360;
	29	30	0.000217991	0.00280275	0.131841	7185.26	7185.26	7185.26	0	0	1	-360	360;
	30	92	0.000194562	0.00250151	0.117671	7185.26	7185.26	7185.26	0	0	1	-360	360;
	169	18	0.000109635	0.00140959	0.0663071	7185.26	7185.26	7185.26	0	0	1	-360	360;
	151	89	0.00400089	0.0514401	2.41974	2970.68	2970.68	2970.68	0	0	1	-360	360;
	112	99	1.46308e-05	0.000482818	0.209226	21816.8	21816.8	21816.8	0	0	1	-360	360;
	34	45	0.000127723	0.00164215	0.077247	7185.26	7185.26	7185.26	0	0	1	-360	360;
	188	183	0.000122029	0.00156895	0.0738036	7185.26	7185.26	7185.26	0	0	1	-360	360;
	92	113	9.90296e-05	0.00127324	0.0598932	7185.26	7185.26	7185.26	0	0	1	-360	360;
	113	188	0.000178376	0.0022934	0.107882	7185.26	7185.26	7185.26	0	0	1	-360	360;
	183	34	0.000424671	0.00546006	0.256842	7185.26	7185.26	7185.26	0	0	1	-360	360;
	127	87	0.00107444	0.0138142	0.162456	3592.63	3592.63	3592.63	0	0	1	-360	360;
	87	127	0.00107272	0.0137921	0.162196	3592.63	3592.63	3592.63	0	0	1	-360	360;
	179	105	0.00422716	0.0543491	0.639147	2769.71	2769.71	2769.71	0	0	1	-360	360;
	105	164	0.00701195	0.0901537	1.06021	1686.81	1686.81	1686.81	0	0	1	-360	360;
	185	198	7.31498e-05	0.000940497	0.0442411	7185.26	7185.26	7185.26	0	0	1	-360	360;
	198	185	9.05342e-05	0.00116401	0.0547552	7185.26	7185.26	7185.26	0	0	1	-360	360;
	21	185	0.000172497	0.00221782	0.104326	7185.26	7185.26	7185.26	0	0	1	-360	360;
	198	135	9.32169e-05	0.0011985	0.0563777	7185.26	7185.26	7185.26	0	0	1	-360	360;
	21	135	0.000164485	0.0021148	0.0994806	7185.26	7185.26	7185.26	0	0	1	-360	360;
	3	122	0.00025027	0.00321776	0.151364	7185.26	7185.26	7185.26	0	0	1	-360	360;
	51	49	9.47974e-05	0.00121882	0.0573336	7185.26	7185.26	7185.26	0	0	1	-360	360;
	21	49	0.000464231	0.00596869	0.280768	7185.26	7185.26	7185.26	0	0	1	-360	360;
	143	21	0.000207173	0.00266365	0.125298	7185.26	7185.26	7185.26	0	0	1	-360	360;
	143	49	0.000150492	0.0019349	0.0910178	7185.26	7185.26	7185.26	0	0	1	-360	360;
	162	60	9.73386e-05	0.0012515	0.0588705	7185.26	7185.26	7185.26	0	0	1	-360	360;
	108	43	0.000969366	0.0124633	0.146568	3592.63	3592.63	3592.63	0	0	1	-360	360;
	60	43	0.000641497	0.00824782	0.0969945	3592.63	3592.63	3592.63	0	0	1	-360	360;
	60	43	0.000321018	0.00412737	0.194152	7185.26	7185.26	7185.26	0	0	1	-360	360;
	58	2	0.00105093	0.0346806	15.0286	4716.22	4716.22	4716.22	0	0	1	-360	360;
	196	60	0.000920254	0.0118318	0.556571	7185.26	7185.26	7185.26	0	0	1	-360	360;
	148	58	0.000481624	0.0158936	6.88737	9594.17	9594.17	9594.17	0	0	1	-360	360;
	15	4	0.000178379	0.00229344	0.026971	3592.63	3592.63	3592.63	0	0	1	-360	360;
	4	102	0.000304258	0.00391189	0.0460039	3592.63	3592.63	3592.63	0	0	1	-360	360;
	102	82	0.000299719	0.00385353	0.0453176	3592.63	3592.63	3592.63	0	0	1	-360	360;
	62	173	0.00047419	0.00782413	6.78106	9739.1	9739.1	9739.1	0	0	1	-360	360;
	62	126	0.000492505	0.00812634	7.04298	9390.08	9390.08	9390.08	0	0	1	-360	360;
	16	115	0.000690727	0.022794	9.8776	6821.47	6821.47	6821.47	0	0	1	-360	360;
	16	115	0.000690173	0.0227757	9.86968	6826.52	6826.52	6826.52	0	0	1	-360	360;
	16	115	0.000690832	0.0227975	9.87912	6820.5	6820.5	6820.5	0	0	1	-360	360;
	117	55	0.000320371	0.00411906	0.0484402	3592.63	3592.63	3592.63	0	0	1	-360	360;
	87	117	0.000345691	0.0044446	0.0522686	3592.63	3592.63	3592.63	0	0	1	-360	360;
	9	5	0.000553897	0.0182786	7.9209	8391.98	8391.98	8391.98	0	0	1	-360	360;
	55	26	0.000411529	0.00529109	0.0622234	3592.63	3592.63	3592.63	0	0	1	-360	360;
	141	180	0.000367992	0.0121437	5.2624	12461.2	12461.2	12461.2	0	0	1	-360	360;
	141	180	0.000368218	0.0121512	5.26564	12453.7	12453.7	12453.7	0	0	1	-360	360;
	9	5	0.000553671	0.0182711	7.91766	8395.25	8395.25	8395.25	0	0	1	-360	360;
	184	9	0.000689458	0.0227521	9.85947	6833.06	6833.06	6833.06	0	0	1	-360	360;
	156	190	0.000637972	0.0105265	9.1232	7344.36	7344.36	7344.36	0	0	1	-360	360;
	104	134	0.000825279	0.0106107	0.124782	3592.63	3592.63	3592.63	0	0	1	-360	360;
	36	104	0.00113371	0.0145763	0.171418	3592.63	3592.63	3592.63	0	0	1	-360	360;
	25	36	0.000852219	0.0109571	0.128856	3592.63	3592.63	3592.63	0	0	1	-360	360;
	147	25	0.00353682	0.0454733	0.534768	3304.57	3304.57	3304.57	0	0	1	-360	360;
	3	122	0.000312688	0.00402027	0.189114	7185.26	7185.26	7185.26	0	0	1	-360	360;
	73	181	8.53037e-05	0.00109676	0.0515918	7185.26	7185.26	7185.26	0	0	1	-360	360;
	168	193	0.000205544	0.00264271	0.124313	7185.26	7185.26	7185.26	0	0	1	-360	360;
	100	149	0.000718219	0.00923425	0.43438	7185.26	7185.26	7185.26	0	0	1	-360	360;
	149	129	0.000778943	0.010015	0.117776	3592.63	3592.63	3592.63	0	0	1	-360	360;
	190	62	0.000758019	0.0125073	10.8399	6264.55	6264.55	6264.55	0	0	1	-360	360;
	62	137	0.000644211	0.0106295	9.21241	7277.87	7277.87	7277.87	0	0	1	-360	360;
	190	9	0.000177296	0.00585076	2.53538	21816.8	21816.8	21816.8	0	0	1	-360	360;
	84	156	0.000800916	0.0264302	11.4533	5960.91	5960.91	5960.91	0	0	1	-360	360;
	121	199	0.000347629	0.00446951	0.210246	7185.26	7185.26	7185.26	0	0	1	-360	360;
	199	121	0.000344171	0.00442506	0.208155	7185.26	7185.26	7185.26	0	0	1	-360	360;
	94	122	0.0004287	0.00551186	0.259278	7185.26	7185.26	7185.26	0	0	1	-360	360;
	69	138	0.000232847	0.00299375	0.140826	7185.26	7185.26	7185.26	0	0	1	-360	360;
	9	5	0.000565677	0.0186674	8.08936	8225.83	8225.83	8225.83	0	0	1	-360	360;
	5	37	0.000682622	0.0225265	9.7617	6896.33	6896.33	6896.33	0	0	1	-360	360;
	76	65	0.00312672	0.0402007	0.472761	3592.63	3592.63	3592.63	0	0	1	-360	360;
	156	190	0.000700046	0.0115508	10.0109	6737.63	6737.63	6737.63	0	0	1	-360	360;
	184	9	0.000734149	0.0242269	10.4986	6449.82	6449.82	6449.82	0	0	1	-360	360;
	184	64	0.000655292	0.0216246	9.37088	7163.02	7163.02	7163.02	0	0	1	-360	360;
	59	180	0.000321337	0.0106041	4.59522	14234.3	14234.3	14234.3	0	0	1	-360	360;
	5	37	0.000682966	0.0225379	9.76663	6893.11	6893.11	6893.11	0	0	1	-360	360;
	166	96	0.00134171	0.0172505	0.811467	7185.26	7185.26	7185.26	0	0	1	-360	360;
	180	184	0.000662312	0.0218563	9.47126	7092.33	7092.33	7092.33	0	0	1	-360	360;
	78	166	0.00474257	0.0609759	0.717078	2472.42	2472.42	2472.42	0	0	1	-360	360;
	87	117	0.000346739	0.00445808	0.0524271	3592.63	3592.63	3592.63	0	0	1	-360	360;
	26	114	0.00417306	0.0536536	0.630967	2805.21	2805.21	2805.21	0	0	1	-360	360;
	26	114	0.00417252	0.0536467	0.630886	2805.56	2805.56	2805.56	0	0	1	-360	360;
	117	55	0.00032083	0.00412495	0.0485095	3592.63	3592.63	3592.63	0	0	1	-360	360;
	55	26	0.00041044	0.00527708	0.0620586	3592.63	3592.63	3592.63	0	0	1	-360	360;
	115	148	0.000646588	0.0213374	9.24641	7252.89	7252.89	7252.89	0	0	1	-360	360;
	115	148	0.000646659	0.0213397	9.24742	7252.15	7252.15	7252.15	0	0	1	-360	360;
	42	31	1.13819e-05	0.000375603	0.162765	21816.8	21816.8	21816.8	0	0	1	-360	360;
	58	150	0.000926706	0.0152907	13.2522	5242.78	5242.78	5242.78	0	0	1	-360	360;
	190	62	0.000758111	0.0125088	10.8412	6263.86	6263.86	6263.86	0	0	1	-360	360;
	11	72	0.000118215	0.0039011	1.69051	21816.8	21816.8	21816.8	0	0	1	-360	360;
	31	172	3.97816e-05	0.00131279	0.568889	21816.8	21816.8	21816.8	0	0	1	-360	360;
	39	42	4.26565e-05	0.00140766	0.610001	21816.8	21816.8	21816.8	0	0	1	-360	360;
	172	63	0.000135979	0.00448732	1.94455	21816.8	21816.8	21816.8	0	0	1	-360	360;
	12	11	1.11758e-05	0.000368801	0.159817	21816.8	21816.8	21816.8	0	0	1	-360	360;
	11	12	1.14896e-05	0.000379155	0.164304	21816.8	21816.8	21816.8	0	0	1	-360	360;
	72	79	4.10604e-05	0.00135499	0.587176	21816.8	21816.8	21816.8	0	0	1	-360	360;
	123	1	3.07838e-05	0.00101587	0.440218	21816.8	21816.8	21816.8	0	0	1	-360	360;
	186	39	3.67415e-05	0.00121247	0.525415	21816.8	21816.8	21816.8	0	0	1	-360	360;
	75	50	2.06223e-05	0.000680534	0.294905	21816.8	21816.8	21816.8	0	0	1	-360	360;
	75	50	2.05619e-05	0.000678544	0.294042	21816.8	21816.8	21816.8	0	0	1	-360	360;
	50	123	8.99674e-05	0.00296892	1.28656	21816.8	21816.8	21816.8	0	0	1	-360	360;
	50	123	9.00496e-05	0.00297164	1.28774	21816.8	21816.8	21816.8	0	0	1	-360	360;
	40	153	0.000617524	0.0079396	0.0933699	3592.63	3592.63	3592.63	0	0	1	-360	360;
	17	3	0.000902786	0.0116073	0.546006	7185.26	7185.26	7185.26	0	0	1	-360	360;
	24	140	0.000613856	0.00789243	0.0928151	3592.63	3592.63	3592.63	0	0	1	-360	360;
	149	89	0.00154714	0.0198918	0.233928	3592.63	3592.63	3592.63	0	0	1	-360	360;
	194	56	0.00107547	0.0138275	0.162612	3592.63	3592.63	3592.63	0	0	1	-360	360;
	71	30	0.00126873	0.0163123	0.191833	3592.63	3592.63	3592.63	0	0	1	-360	360;
	152	23	0.00175783	0.0226006	1.06314	6648.6	6648.6	6648.6	0	0	1	-360	360;
	147	128	0.00217497	0.0279638	1.31542	5384.92	5384.92	5384.92	0	0	1	-360	360;
	127	70	0.00552425	0.0710261	0.835268	2128.12	2128.12	2128.12	0	0	1	-360	360;
	70	56	0.00322769	0.0414989	0.488028	3592.63	3592.63	3592.63	0	0	1	-360	360;
	56	200	0.00513897	0.0660724	0.777013	2284.61	2284.61	2284.61	0	0	1	-360	360;
	47	65	0.0115588	0.148613	1.74769	1052.01	1052.01	1052.01	0	0	1	-360	360;
	197	48	0.000114123	0.0014673	0.0993164	8619.05	8619.05	8619.05	0	0	1	-360	360;
	195	85	0.00129218	0.0166138	0.195378	3592.63	3592.63	3592.63	0	0	1	-360	360;
	158	164	0.00526179	0.0676516	0.795584	2232.21	2232.21	2232.21	0	0	1	-360	360;
	132	94	0.000734818	0.00944766	0.444419	7185.26	7185.26	7185.26	0	0	1	-360	360;
	14	176	0.000203881	0.00262132	0.123307	7185.26	7185.26	7185.26	0	0	1	-360	360;
	136	175	0.000228091	0.00293259	0.0344874	3592.63	3592.63	3592.63	0	0	1	-360	360;
	84	124	4.85722e-05	0.00160288	0.694598	21816.8	21816.8	21816.8	0	0	1	-360	360;
	174	61	2.64074e-05	0.000871443	0.377634	21816.8	21816.8	21816.8	0	0	1	-360	360;
	173	5	0.00087265	0.0287974	12.4792	5524	5524	5524	0	0	1	-360	360;
	44	130	0.000169835	0.00218359	0.102716	7185.26	7185.26	7185.26	0	0	1	-360	360;
	81	120	0.000347587	0.00446897	0.210221	7185.26	7185.26	7185.26	0	0	1	-360	360;
	174	19	3.05902e-05	0.00100948	0.43745	21816.8	21816.8	21816.8	0	0	1	-360	360;
	174	95	2.04111e-05	0.000673566	0.291885	21816.8	21816.8	21816.8	0	0	1	-360	360;
	80	53	1.68543e-05	0.000556191	2.16919	65450.3	65450.3	65450.3	0	0	1	-360	360;
	99	189	0.00115247	0.0380314	16.4806	4380.16	4380.16	4380.16	0	0	1	-360	360;
	99	58	0.000158144	0.00521877	2.26151	21816.8	21816.8	21816.8	0	0	1	-360	360;
	93	47	0.00124389	0.0159929	0.188077	3592.63	3592.63	3592.63	0	0	1	-360	360;
	148	58	0.0004801	0.0158433	6.86558	9623.5	9623.5	9623.5	0	0	1	-360	360;
	148	112	0.000515482	0.0170109	7.37156	8988.02	8988.02	8988.02	0	0	1	-360	360;
	33	91	0.000147217	0.00189279	0.0890371	7185.26	7185.26	7185.26	0	0	1	-360	360;
	112	110	0.000741885	0.0244822	10.6092	6388.4	6388.4	6388.4	0	0	1	-360	360;
	143	38	0.0003051	0.00392272	0.184525	7185.26	7185.26	7185.26	0	0	1	-360	360;
	38	103	0.000147177	0.00189228	0.0890131	7185.26	7185.26	7185.26	0	0	1	-360	360;
	135	21	0.000274192	0.00352532	0.165831	7185.26	7185.26	7185.26	0	0	1	-360	360;
	135	154	0.00029171	0.00375056	0.176427	7185.26	7185.26	7185.26	0	0	1	-360	360;
	168	138	0.000160326	0.00206134	0.0969654	7185.26	7185.26	7185.26	0	0	1	-360	360;
	52	171	0.000106427	0.00136834	0.064367	7185.26	7185.26	7185.26	0	0	1	-360	360;
	171	159	0.000404267	0.00519772	0.244501	7185.26	7185.26	7185.26	0	0	1	-360	360;
	200	106	0.00014468	0.00186017	0.0875027	7185.26	7185.26	7185.26	0	0	1	-360	360;
	106	52	0.00013173	0.00169368	0.0796707	7185.26	7185.26	7185.26	0	0	1	-360	360;
	32	80	2.56873e-05	0.000847682	0.367337	21816.8	21816.8	21816.8	0	0	1	-360	360;
	86	151	0.00139249	0.0179034	0.842177	7185.26	7185.26	7185.26	0	0	1	-360	360;
	161	158	0.000785914	0.0101046	0.11883	3592.63	3592.63	3592.63	0	0	1	-360	360;
	85	161	0.0019585	0.0251807	0.296126	3592.63	3592.63	3592.63	0	0	1	-360	360;
	139	27	0.000373251	0.00479894	0.225743	7185.26	7185.26	7185.26	0	0	1	-360	360;
	160	38	9.4812e-05	0.00121901	0.0573424	7185.26	7185.26	7185.26	0	0	1	-360	360;
	64	9	3.13011e-05	0.00103294	0.447615	21816.8	21816.8	21816.8	0	0	1	-360	360;
	68	41	0.000427457	0.00549588	0.0646316	3592.63	3592.63	3592.63	0	0	1	-360	360;
	155	186	2.09939e-05	0.000692798	0.300219	21816.8	21816.8	21816.8	0	0	1	-360	360;
	118	103	0.000626972	0.00806106	0.379193	7185.26	7185.26	7185.26	0	0	1	-360	360;
	118	103	0.000592603	0.00761918	0.358407	7185.26	7185.26	7185.26	0	0	1	-360	360;
	173	53	7.62934e-05	0.00251768	1.09102	21816.8	21816.8	21816.8	0	0	1	-360	360;
	61	173	0.000214873	0.00709081	3.07275	21191.4	21191.4	21191.4	0	0	1	-360	360;
	61	137	6.64388e-05	0.00219248	0.950096	21816.8	21816.8	21816.8	0	0	1	-360	360;
	10	86	0.000576686	0.00741453	0.34878	7185.26	7185.26	7185.26	0	0	1	-360	360;
	15	21	0.000110589	0.00142186	0.15049	10777.9	10777.9	10777.9	0	0	1	-360	360;
	21	15	0.000329923	0.00424187	0.0498844	3592.63	3592.63	3592.63	0	0	1	-360	360;
	21	15	0.000109765	0.00141126	0.149368	10777.9	10777.9	10777.9	0	0	1	-360	360;
	7	163	0.000281929	0.0036248	0.170511	7185.26	7185.26	7185.26	0	0	1	-360	360;
	163	69	0.000220607	0.00283638	0.133424	7185.26	7185.26	7185.26	0	0	1	-360	360;
	57	101	0.000239139	0.00789159	3.41976	19057.6	19057.6	19057.6	0	0	1	-360	360;
	57	6	0.000304453	0.0100469	4.35377	15011.1	15011.1	15011.1	0	0	1	-360	360;
	107	115	0.000418159	0.0137993	5.9798	11000.5	11000.5	11000.5	0	0	1	-360	360;
	107	115	0.000418344	0.0138054	5.98245	10995.7	10995.7	10995.7	0	0	1	-360	360;
	107	115	0.000418529	0.0138115	5.9851	10991	10991	10991	0	0	1	-360	360;
	130	6	0.000166667	0.005	0	100000	100000	100000	1	0	1	-360	360;
	142	189	0.000166667	0.005	0	100000	100000	100000	1	0	1	-360	360;
	154	101	0.000166667	0.005	0	100000	100000	100000	1	0	1	-360	360;
	199	84	0.000166667	0.005	0	100000	100000	100000	1	0	1	-360	360;
	65	148	0.000166667	0.005	0	100000	100000	100000	1	0	1	-360	360;
	122	112	0.000166667	0.005	0	100000	100000	100000	1	0	1	-360	360;
	60	58	0.000166667	0.005	0	100000	100000	100000	1	0	1	-360	360;
	88	191	0.000166667	0.005	0	100000	100000	100000	1	0	1	-360	360;
	191	22	0.000166667	0.005	0	100000	100000	100000	1	0	1	-360	360;
	103	137	0.000166667	0.005	0	100000	100000	100000	1	0	1	-360	360;
	77	2	0.000166667	0.005	0	100000	100000	100000	1	0	1	-360	360;
	138	37	0.000166667	0.005	0	100000	100000	100000	1	0	1	-360	360;
	21	174	0.000166667	0.005	0	100000	100000	100000	1	0	1	-360	360;
	35	141	0.000166667	0.005	0	100000	100000	100000	1	0	1	-360	360;
	164	115	0.000166667	0.005	0	100000	100000	100000	1	0	1	-360	360;
	134	190	0.000166667	0.005	0	100000	100000	100000	1	0	1	-360	360;
	121	124	0.000166667	0.005	0	100000	100000	100000	1	0	1	-360	360;
	96	156	0.000166667	0.005	0	100000	100000	100000	1	0	1	-360	360;
	66	16	0.000166667	0.005	0	100000	100000	100000	1	0	1	-360	360;
	135	95	0.000166667	0.005	0	100000	100000	100000	1	0	1	-360	360;
	4	19	0.000166667	0.005	0	100000	100000	100000	1	0	1	-360	360;
	152	197	0.000166667	0.005	0	100000	100000	100000	1	0	1	-360	360;
];

%% generator cost data
%	2	startup	shutdown	n	c(n-1)	...	c0
mpc.gencost = [
	2	0	0	3	0.0001	0	0;
	2	0	0	3	0.0001	0	0;
	2	0	0	3	0.0001	0	0;
	2	0	0	3	0.0001	0	0;
	2	0	0	3	0.0001	0	0;
	2	0	0	3	0.0001	0	0;
	2	0	0	3	0.0001	0	0;
	2	0	0	3	0.0001	0	0;
	2	0	0	3	0.0001	0	0;
	2	0	0	3	0.0001	0	0;
	2	0	0	3	0.0001	0	0;
	2	0	0	3	0.0001	0	0;
	2	0	0	3	0.0001	0	0;
	2	0	0	3	0.0001	0	0;
	2	0	0	3	0.0001	0	0;
	2	0	0	3	0.0001	0	0;
	2	0	0	3	0.0001	0	0;
	2	0	0	3	0.0001	0	0;
	2	0	0	3	0.0001	0	0;
	2	0	0	3	0.0001	0	0;
	2	0	0	3	0.0001	0	0;
	2	0	0	3	0.0001	0	0;
	2	0	0	3	0.0001	0	0;
	2	0	0	3	0.0001	0	0;
	2	0	0	3	0.0001	0	0;
	2	0	0	3	0.0001	-0.3	0;
	2	0	0	3	0.0001	0	0;
	2	0	0	3	0.0001	0	0;
	2	0	0	3	0.0001	0	0;
	2	0	0	3	0.0001	0	0;
	2	0	0	3	0.0001	0	0;
	2	0	0	3	0.0001	0	0;
	2	0	0	3	0.0001	0	0;
	2	0	0	3	0.0001	0	0;
	2	0	0	3	0.0001	0	0;
	2	0	0	3	0.0001	0	0;
	2	0	0	3	0.0001	0	0;
	2	0	0	3	0.0001	0	0;
	2	0	0	3	0.0001	0	0;
	2	0	0	3	0.0001	0	0;
	2	0	0	3	0.0001	0	0;
	2	0	0	3	0.0001	0	0;
	2	0	0	3	0.0001	0	0;
	2	0	0	3	0.0001	0	0;
	2	0	0	3	0.0001	0	0;
	2	0	0	3	0.0001	0	0;
	2	0	0	3	0.0001	0	0;
	2	0	0	3	0.0001	0	0;
	2	0	0	3	0.0001	0	0;
	2	0	0	3	0.0001	0	0;
	2	0	0	3	0.0001	0	0;
	2	0	0	3	0.0001	0	0;
	2	0	0	3	0.0001	0	0;
	2	0	0	3	0.0001	0	0;
	2	0	0	3	0.0001	0	0;
	2	0	0	3	0.0001	0	0;
	2	0	0	3	0.0001	0	0;
	2	0	0	3	0.0001	0	0;
	2	0	0	3	0.0001	0	0;
	2	0	0	3	0.0001	0.01	0;
	2	0	0	3	0.0001	0.01	0;
	2	0	0	3	0.0001	0.01	0;
	2	0	0	3	0.0001	0	0;
	2	0	0	3	0.0001	0	0;
	2	0	0	3	0.0001	0	0;
	2	0	0	3	0.0001	0	0;
	2	0	0	3	0.0001	0	0;
	2	0	0	3	0.0001	0	0;
	2	0	0	3	0.0001	0	0;
	2	0	0	3	0.0001	0	0;
	2	0	0	3	0.0001	0	0;
	2	0	0	3	0.0001	0	0;
	2	0	0	3	0.0001	0	0;
	2	0	0	3	0.0001	0	0;
	2	0	0	3	0.0001	0	0;
	2	0	0	3	0.0001	0	0;
	2	0	0	3	0.0001	0	0;
	2	0	0	3	0.0001	0	0;
	2	0	0	3	0.0001	0	0;
	2	0	0	3	0.0001	0	0;
	2	0	0	3	0.0001	0	0;
	2	0	0	3	0.0001	0	0;
	2	0	0	3	0.0001	0	0;
	2	0	0	3	0.0001	0	0;
	2	0	0	3	0.0001	0	0;
	2	0	0	3	0.0001	0	0;
	2	0	0	3	0.0001	0	0;
	2	0	0	3	0.0001	0	0;
	2	0	0	3	0.0001	0	0;
	2	0	0	3	0.0001	0	0;
	2	0	0	3	0.0001	0	0;
	2	0	0	3	0.0001	0	0;
	2	0	0	3	0.0001	0	0;
	2	0	0	3	0.0001	0	0;
	2	0	0	3	0.0001	0	0;
	2	0	0	3	0.0001	0	0;
	2	0	0	3	0.0001	0	0;
	2	0	0	3	0.0001	0	0;
	2	0	0	3	0.0001	0	0;
	2	0	0	3	0.0001	0	0;
	2	0	0	3	0.0001	0	0;
	2	0	0	3	0.0001	0	0;
	2	0	0	3	0.0001	0	0;
	2	0	0	3	0.0001	0	0;
	2	0	0	3	0.0001	0	0;
	2	0	0	3	0.0001	0	0;
	2	0	0	3	0.0001	0	0;
	2	0	0	3	0.0001	0	0;
	2	0	0	3	0.0001	0	0;
];
